117

H          7.20706        0.61871        7.31523
C          3.57877        0.08655        4.92837
H          2.69839        0.49573        6.82022
H         13.42720       15.73520        6.73598
H          9.23405       15.08630        4.52276
O         11.44300       15.05470        5.98761
H         10.71010        2.85855       15.59740
H         12.20830        1.12299       15.83400
O          4.79647       -0.23301        7.12102
H          4.39834       -0.44001        4.47867
H          7.15311       10.80890        1.15231
C          3.49214       -0.18262        6.43535
H          7.88915       10.86270        3.47330
H          8.22281       13.18560        3.37091
C          8.95119       10.61510        3.32261
C          9.13879       13.02470        3.93308
H          9.00220        9.67468        3.89647
C          9.21500       10.38660        1.83751
H         11.41140       10.19210        2.02332
C          8.17387       10.47830        0.88081
C         10.52120       10.18890        1.35293
C         10.73280        9.94107        0.02428
C          9.76105       11.75020        3.96803
C         10.89820       11.56700        4.77757
C         11.43950       12.64510        5.44359
C         10.88670       13.94580        5.35427
C          9.71120       14.08560        4.58563
H         11.36860       10.57610        4.93144
H         12.31150       12.42260        6.05870
C         12.75200       14.90350        6.75962
H         13.45220       14.09260        6.55305
C          6.52662        1.33664        7.75511
C          6.95505        2.53200        8.26501
C          5.17806        0.96751        7.78795
C          6.06585        3.43691        8.92691
C          4.70005        3.11557        8.94487
C          4.31105        1.91009        8.34918
C          6.62794        4.64747        9.67386
H          5.80708        5.28479       10.09380
H          3.99968        3.80737        9.43317
H          3.24634        1.73818        8.42145
H          7.14213        5.32622        8.96579
H          6.41923        3.04409       12.13300
C          3.53686        6.59681       11.01630
H          3.36068        5.72081       10.36460
H          4.23586        6.20201       11.78110
H          2.57730        6.72110       11.54200
C          7.42695        3.39854       11.92040
H          8.01086        2.82362        8.17362
C          7.60478        4.20796       10.77890
H          9.22569        5.42949        9.91792
C          8.93827        4.72132       10.72230
C          9.88822        4.30682       11.63980
C          9.81233        3.46455       12.75430
C          8.45831        3.00674       12.80130
O         10.99600        3.33583       13.51480
C         10.90600        2.37995       14.61910
C         12.11750        1.50109       14.79880
C         12.46530        0.40808       13.68060
O         13.14660        1.64971       13.81670
H         10.04210        1.69261       14.78530
H         10.88510        4.67216       11.50200
H          8.20130        2.34739       13.66120
H         11.65360        0.13433       12.97560
H         11.44650       15.48860        8.39470
H          8.50706        7.36813       -2.44154
H          5.05659        7.96748       10.17460
H          3.69494        7.64315        9.15088
C          3.96383        7.86417       10.19930
H          2.67788        8.35505       12.44490
H          3.41147       13.49420        9.78642
C          2.70899        9.24231       11.80300
H          2.04487       10.30570       14.48500
C          1.36840       10.19950       13.62840
H          0.69033       11.04840       13.79440
H          4.22752       11.30550        8.14996
C          3.35691        9.20876       10.57190
H          1.22410        8.03904       14.12590
C          2.05030       10.36620       12.28260
C          2.17918       11.61330       11.55630
C          2.66276       11.46560       10.21970
C          3.31650       10.33970        9.67951
C          2.67626       12.76930        9.38691
N          4.08002       10.33970        8.48729
C          0.58895        8.86407       13.74370
H          2.88010       12.62040        8.31591
H          0.14386        8.55917       12.77810
H          4.77419        9.58613        8.47885
H          1.68555       13.30610        9.38304
N          1.94241       12.81700       12.20450
H          1.49164       12.77060       13.16150
H          2.01320       13.61490       11.52930
C         12.32290       14.84890        8.18060
C         12.09390       13.44630        8.88428
H         11.20590       13.30790        9.50224
H         11.74960        9.75722       -0.31723
H         12.82110       -0.52607       14.13770
H         12.07310       12.60330        8.17545
O         13.21620       14.29980        9.16873
H          9.18917        7.43622        0.62550
H          7.54664        7.29261       -0.14090
C          8.60768        6.94447       -0.19700
O          9.03833        5.81580       -0.97910
C          9.17225        7.05997       -1.64560
H         11.10900        7.23442       -2.54200
C          9.68702        9.81285       -0.90470
C          8.42810       10.17180       -0.45380
O          9.99466        9.16638       -2.14140
C         10.47910        7.76711       -1.80440
H         11.05460        7.54387       -0.86850
H          7.59667       10.16400       -1.17490
H          2.83389       -1.05870        6.52925
C          3.22870        1.49412        4.28092
H          3.26300        2.33274        4.94325
H          3.88090        1.77808        3.45844
O          2.32280        0.40460        4.24485
H         -0.29876        8.94415       14.41276
